/*--------------------------------*- C++ -*----------------------------------*\
| =========                 |                                                 |
| \\      /  F ield         | OpenFOAM: The Open Source CFD Toolbox           |
|  \\    /   O peration     | Version:  v2406                                 |
|   \\  /    A nd           | Website:  www.openfoam.com                      |
|    \\/     M anipulation  |                                                 |
\*---------------------------------------------------------------------------*/
FoamFile
{
    version     2.0;
    format      ascii;
    class       dictionary;
    object      foam.dat;
}
// * * * * * * * * * * * * * * * * * * * * * * * * * * * * * * * * * * * * * //

air
{
    specie
    {
        molWeight       31.9988;
    }
    thermodynamics
    {
        Cp  1005;
        Hf  0;
    }
    transport
    {
        mu 1.82e-05;
        Pr 0.71;
    }
}

H2O
{
    specie
    {
        molWeight       18.0153;
    }
    thermodynamics
    {
        Cp  4182;
        Hf  0;
    }
    transport
    {
        mu  1e-03;
        Pr  0.71;
    }
}



// ************************************************************************* //
